<additional>
    <poi id="1" type="eNodeB" color="white" width="10" height="30" layer="202.00" value="42" lat="48.733724" lon="11.470689" imgFile="../../images/enodeb.jpg" >
        <param key="answer to everything" value="42"/>
    </poi> 
    <poi id="2" type="eNodeB" color="white" width="10" height="30" layer="202.00" lat="48.737595" lon="11.468147"  imgFile="../../images/enodeb.jpg" />
    <poi id="3" type="eNodeB" color="white" width="10" height="30" layer="202.00" lat="48.741991" lon="11.465142"  imgFile="../../images/enodeb.jpg" />
    <poi id="4" type="eNodeB" color="white" width="10" height="30" layer="202.00" lat="48.739451" lon="11.463404"  imgFile="../../images/enodeb.jpg" />
</additional> 